86567195
  -OEChem-08152414043D

 93100  0     1  0  0  0  0  0999 V2000
   -8.3478    5.9339   -0.9049 O   0  0  0  0  0  0  0  0  0  0  0  0
    2.1262    0.9786   -0.8400 O   0  0  0  0  0  0  0  0  0  0  0  0
    1.0269   -0.9458    0.7286 O   0  0  0  0  0  0  0  0  0  0  0  0
   -1.6584   -6.0556    2.2196 O   0  0  0  0  0  0  0  0  0  0  0  0
    5.5836    1.6655   -0.1373 N   0  0  0  0  0  0  0  0  0  0  0  0
   -6.7181    3.3185   -0.1049 N   0  0  1  0  0  0  0  0  0  0  0  0
   -5.3813    0.8165    0.2348 N   0  0  1  0  0  0  0  0  0  0  0  0
    4.0042   -0.3684   -1.2667 N   0  0  0  0  0  0  0  0  0  0  0  0
    3.4414   -1.9529   -2.9624 N   0  0  0  0  0  0  0  0  0  0  0  0
   -2.7514   -1.6671    0.9389 N   0  0  0  0  0  0  0  0  0  0  0  0
   -2.7801   -4.0296    0.7825 N   0  0  0  0  0  0  0  0  0  0  0  0
    0.4571   -5.7169    1.3054 N   0  0  0  0  0  0  0  0  0  0  0  0
    7.1511    4.6403    1.3955 C   0  0  0  0  0  0  0  0  0  0  0  0
    7.4783    3.2454    0.7072 C   0  0  0  0  0  0  0  0  0  0  0  0
    5.6754    5.0332    0.9413 C   0  0  0  0  0  0  0  0  0  0  0  0
    6.1266    2.8099    0.3172 C   0  0  0  0  0  0  0  0  0  0  0  0
    5.1449    3.7504    0.4384 C   0  0  0  0  0  0  0  0  0  0  0  0
    7.1972    4.4862    2.9258 C   0  0  0  0  0  0  0  0  0  0  0  0
    8.1560    5.7101    0.9602 C   0  0  0  0  0  0  0  0  0  0  0  0
    4.2283    1.8527   -0.3285 C   0  0  0  0  0  0  0  0  0  0  0  0
    3.9342    3.1652    0.0400 C   0  0  0  0  0  0  0  0  0  0  0  0
    6.2158    0.3940   -0.3869 C   0  0  0  0  0  0  0  0  0  0  0  0
   -7.1412    4.6653    0.3156 C   0  0  0  0  0  0  0  0  0  0  0  0
   -5.2513    3.2547   -0.1280 C   0  0  0  0  0  0  0  0  0  0  0  0
   -4.7509    1.8717   -0.5839 C   0  0  2  0  0  0  0  0  0  0  0  0
   -7.2389    2.3285    0.8440 C   0  0  0  0  0  0  0  0  0  0  0  0
    5.4669   -0.3473   -1.4895 C   0  0  0  0  0  0  0  0  0  0  0  0
   -6.8322    0.9097    0.4395 C   0  0  0  0  0  0  0  0  0  0  0  0
    3.3434    0.8066   -0.8134 C   0  0  0  0  0  0  0  0  0  0  0  0
   -8.6277    4.8391    0.0050 C   0  0  0  0  0  0  0  0  0  0  0  0
   -6.9278    5.6428   -0.8402 C   0  0  0  0  0  0  0  0  0  0  0  0
   -5.0281    1.6276   -2.0723 C   0  0  0  0  0  0  0  0  0  0  0  0
   -4.7425   -0.4212    0.3664 C   0  0  0  0  0  0  0  0  0  0  0  0
    3.2644   -1.5311   -1.6902 C   0  0  0  0  0  0  0  0  0  0  0  0
    2.4204   -2.1459   -0.7795 C   0  0  0  0  0  0  0  0  0  0  0  0
   -5.4092   -1.6062    0.0751 C   0  0  0  0  0  0  0  0  0  0  0  0
   -3.4261   -0.5050    0.7909 C   0  0  0  0  0  0  0  0  0  0  0  0
    1.7124   -3.2658   -1.2015 C   0  0  0  0  0  0  0  0  0  0  0  0
    2.2717   -1.6215    0.6125 C   0  0  0  0  0  0  0  0  0  0  0  0
   -4.7484   -2.8216    0.2153 C   0  0  0  0  0  0  0  0  0  0  0  0
   -3.4318   -2.7981    0.6464 C   0  0  0  0  0  0  0  0  0  0  0  0
    2.7367   -3.0443   -3.3366 C   0  0  0  0  0  0  0  0  0  0  0  0
    1.8680   -3.7301   -2.5029 C   0  0  0  0  0  0  0  0  0  0  0  0
    0.7904   -3.9820   -0.2986 C   0  0  0  0  0  0  0  0  0  0  0  0
   -0.6148   -3.6483   -0.1812 C   0  0  0  0  0  0  0  0  0  0  0  0
   -1.4525   -4.3064    0.6355 C   0  0  0  0  0  0  0  0  0  0  0  0
    1.2641   -4.9968    0.4428 C   0  0  0  0  0  0  0  0  0  0  0  0
   -0.9059   -5.4403    1.4634 C   0  0  0  0  0  0  0  0  0  0  0  0
    1.0808   -6.7980    2.0617 C   0  0  0  0  0  0  0  0  0  0  0  0
    7.9617    2.5463    1.3958 H   0  0  0  0  0  0  0  0  0  0  0  0
    8.1069    3.3728   -0.1805 H   0  0  0  0  0  0  0  0  0  0  0  0
    5.6922    5.7727    0.1330 H   0  0  0  0  0  0  0  0  0  0  0  0
    5.0811    5.4274    1.7713 H   0  0  0  0  0  0  0  0  0  0  0  0
    6.9466    5.4297    3.4233 H   0  0  0  0  0  0  0  0  0  0  0  0
    6.4878    3.7270    3.2731 H   0  0  0  0  0  0  0  0  0  0  0  0
    8.1967    4.1871    3.2605 H   0  0  0  0  0  0  0  0  0  0  0  0
    7.9222    6.6783    1.4163 H   0  0  0  0  0  0  0  0  0  0  0  0
    8.1461    5.8428   -0.1272 H   0  0  0  0  0  0  0  0  0  0  0  0
    9.1750    5.4350    1.2532 H   0  0  0  0  0  0  0  0  0  0  0  0
    2.9560    3.6248    0.0133 H   0  0  0  0  0  0  0  0  0  0  0  0
    6.1819   -0.1650    0.5549 H   0  0  0  0  0  0  0  0  0  0  0  0
    7.2597    0.5630   -0.6679 H   0  0  0  0  0  0  0  0  0  0  0  0
   -6.8169    5.0147    1.3008 H   0  0  0  0  0  0  0  0  0  0  0  0
   -4.8462    3.4695    0.8712 H   0  0  0  0  0  0  0  0  0  0  0  0
   -4.8338    4.0108   -0.8036 H   0  0  0  0  0  0  0  0  0  0  0  0
   -3.6633    1.8710   -0.4437 H   0  0  0  0  0  0  0  0  0  0  0  0
   -8.3335    2.3594    0.8896 H   0  0  0  0  0  0  0  0  0  0  0  0
   -6.8720    2.5360    1.8588 H   0  0  0  0  0  0  0  0  0  0  0  0
    5.6293    0.1499   -2.4541 H   0  0  0  0  0  0  0  0  0  0  0  0
    5.8414   -1.3746   -1.5631 H   0  0  0  0  0  0  0  0  0  0  0  0
   -7.1540    0.2314    1.2399 H   0  0  0  0  0  0  0  0  0  0  0  0
   -7.3593    0.6168   -0.4771 H   0  0  0  0  0  0  0  0  0  0  0  0
   -9.1505    4.0342   -0.5222 H   0  0  0  0  0  0  0  0  0  0  0  0
   -9.2368    5.1728    0.8506 H   0  0  0  0  0  0  0  0  0  0  0  0
   -6.3514    6.5369   -0.5843 H   0  0  0  0  0  0  0  0  0  0  0  0
   -6.5775    5.2482   -1.7998 H   0  0  0  0  0  0  0  0  0  0  0  0
   -6.0991    1.6254   -2.2995 H   0  0  0  0  0  0  0  0  0  0  0  0
   -4.6229    0.6613   -2.3914 H   0  0  0  0  0  0  0  0  0  0  0  0
   -4.5566    2.4044   -2.6836 H   0  0  0  0  0  0  0  0  0  0  0  0
   -6.4369   -1.6154   -0.2763 H   0  0  0  0  0  0  0  0  0  0  0  0
   -2.8497    0.3765    1.0535 H   0  0  0  0  0  0  0  0  0  0  0  0
    2.2831   -2.4467    1.3337 H   0  0  0  0  0  0  0  0  0  0  0  0
    3.0793   -0.9650    0.9448 H   0  0  0  0  0  0  0  0  0  0  0  0
   -5.2607   -3.7504   -0.0139 H   0  0  0  0  0  0  0  0  0  0  0  0
    2.8934   -3.3656   -4.3610 H   0  0  0  0  0  0  0  0  0  0  0  0
    1.3331   -4.5999   -2.8707 H   0  0  0  0  0  0  0  0  0  0  0  0
   -3.3349   -4.7607    1.2168 H   0  0  0  0  0  0  0  0  0  0  0  0
   -0.9707   -2.8353   -0.8086 H   0  0  0  0  0  0  0  0  0  0  0  0
    2.3054   -5.3028    0.4024 H   0  0  0  0  0  0  0  0  0  0  0  0
    0.9440   -0.6558    1.6530 H   0  0  0  0  0  0  0  0  0  0  0  0
    1.8829   -6.3844    2.6813 H   0  0  0  0  0  0  0  0  0  0  0  0
    1.4948   -7.5312    1.3622 H   0  0  0  0  0  0  0  0  0  0  0  0
    0.3586   -7.3003    2.7108 H   0  0  0  0  0  0  0  0  0  0  0  0
  1 30  1  0  0  0  0
  1 31  1  0  0  0  0
  2 29  2  0  0  0  0
  3 39  1  0  0  0  0
  3 90  1  0  0  0  0
  4 48  2  0  0  0  0
  5 16  1  0  0  0  0
  5 20  1  0  0  0  0
  5 22  1  0  0  0  0
  6 23  1  0  0  0  0
  6 24  1  0  0  0  0
  6 26  1  0  0  0  0
  7 25  1  0  0  0  0
  7 28  1  0  0  0  0
  7 33  1  0  0  0  0
  8 27  1  0  0  0  0
  8 29  1  0  0  0  0
  8 34  1  0  0  0  0
  9 34  2  0  0  0  0
  9 42  1  0  0  0  0
 10 37  1  0  0  0  0
 10 41  2  0  0  0  0
 11 41  1  0  0  0  0
 11 46  1  0  0  0  0
 11 87  1  0  0  0  0
 12 47  1  0  0  0  0
 12 48  1  0  0  0  0
 12 49  1  0  0  0  0
 13 14  1  0  0  0  0
 13 15  1  0  0  0  0
 13 18  1  0  0  0  0
 13 19  1  0  0  0  0
 14 16  1  0  0  0  0
 14 50  1  0  0  0  0
 14 51  1  0  0  0  0
 15 17  1  0  0  0  0
 15 52  1  0  0  0  0
 15 53  1  0  0  0  0
 16 17  2  0  0  0  0
 17 21  1  0  0  0  0
 18 54  1  0  0  0  0
 18 55  1  0  0  0  0
 18 56  1  0  0  0  0
 19 57  1  0  0  0  0
 19 58  1  0  0  0  0
 19 59  1  0  0  0  0
 20 21  2  0  0  0  0
 20 29  1  0  0  0  0
 21 60  1  0  0  0  0
 22 27  1  0  0  0  0
 22 61  1  0  0  0  0
 22 62  1  0  0  0  0
 23 30  1  0  0  0  0
 23 31  1  0  0  0  0
 23 63  1  0  0  0  0
 24 25  1  0  0  0  0
 24 64  1  0  0  0  0
 24 65  1  0  0  0  0
 25 32  1  0  0  0  0
 25 66  1  0  0  0  0
 26 28  1  0  0  0  0
 26 67  1  0  0  0  0
 26 68  1  0  0  0  0
 27 69  1  0  0  0  0
 27 70  1  0  0  0  0
 28 71  1  0  0  0  0
 28 72  1  0  0  0  0
 30 73  1  0  0  0  0
 30 74  1  0  0  0  0
 31 75  1  0  0  0  0
 31 76  1  0  0  0  0
 32 77  1  0  0  0  0
 32 78  1  0  0  0  0
 32 79  1  0  0  0  0
 33 36  1  0  0  0  0
 33 37  2  0  0  0  0
 34 35  1  0  0  0  0
 35 38  2  0  0  0  0
 35 39  1  0  0  0  0
 36 40  2  0  0  0  0
 36 80  1  0  0  0  0
 37 81  1  0  0  0  0
 38 43  1  0  0  0  0
 38 44  1  0  0  0  0
 39 82  1  0  0  0  0
 39 83  1  0  0  0  0
 40 41  1  0  0  0  0
 40 84  1  0  0  0  0
 42 43  2  0  0  0  0
 42 85  1  0  0  0  0
 43 86  1  0  0  0  0
 44 45  1  0  0  0  0
 44 47  2  0  0  0  0
 45 46  2  0  0  0  0
 45 88  1  0  0  0  0
 46 48  1  0  0  0  0
 47 89  1  0  0  0  0
 49 91  1  0  0  0  0
 49 92  1  0  0  0  0
 49 93  1  0  0  0  0
M  END
> <PUBCHEM_COMPOUND_CID>
86567195

> <PUBCHEM_CONFORMER_RMSD>
1.2

> <PUBCHEM_CONFORMER_DIVERSEORDER>
1
21
157
123
41
110
135
139
52
95
149
7
109
150
34
60
86
70
43
134
81
40
124
76
33
66
47
144
94
113
72
119
62
142
154
126
37
107
56
14
13
68
111
88
74
87
115
25
22
156
84
97
65
132
11
77
130
102
48
158
137
101
147
148
145
71
80
46
20
57
117
93
44
18
53
96
67
128
19
16
61
151
54
112
26
155
136
129
10
114
3
75
159
100
78
8
83
138
55
82
131
146
89
79
63
49
92
6
91
31
36
85
122
45
104
118
125
153
28
24
105
12
140
143
30
17
103
58
39
9
32
23
141
152
120
15
29
98
90
35
106
69
99
73
133
50
108
51
121
38
116
27
127
64
59
5
4
42
2

> <PUBCHEM_MMFF94_PARTIAL_CHARGES>
55
1 -0.52
10 -0.62
11 -0.6
12 -0.47
14 0.18
15 0.18
16 -0.33
17 -0.18
2 -0.57
20 -0.24
21 -0.15
22 0.26
23 0.21
24 0.27
25 0.37
26 0.27
27 0.3
28 0.37
29 0.71
3 -0.68
30 0.26
31 0.26
33 0.1
34 0.43
35 -0.14
36 -0.15
37 0.16
38 0.03
39 0.42
4 -0.57
40 -0.15
41 0.41
42 0.16
43 -0.15
44 -0.03
45 -0.15
46 0.11
47 -0.04
48 0.62
49 0.3
5 0.05
6 -0.75
60 0.15
7 -0.84
8 -0.48
80 0.15
81 0.15
84 0.15
85 0.15
86 0.15
87 0.4
88 0.15
89 0.15
9 -0.62
90 0.4

> <PUBCHEM_EFFECTIVE_ROTOR_COUNT>
10.2

> <PUBCHEM_PHARMACOPHORE_FEATURES>
19
1 1 acceptor
1 11 donor
1 2 acceptor
1 3 acceptor
1 3 donor
1 4 acceptor
1 5 cation
1 6 cation
1 7 cation
3 10 11 41 cation
3 13 18 19 hydrophobe
4 1 23 30 31 rings
5 13 14 15 16 17 rings
5 5 16 17 20 21 rings
6 10 33 36 37 40 41 rings
6 12 44 45 46 47 48 rings
6 5 8 20 22 27 29 rings
6 6 7 24 25 26 28 rings
6 9 34 35 38 42 43 rings

> <PUBCHEM_HEAVY_ATOM_COUNT>
49

> <PUBCHEM_ATOM_DEF_STEREO_COUNT>
1

> <PUBCHEM_ATOM_UDEF_STEREO_COUNT>
0

> <PUBCHEM_BOND_DEF_STEREO_COUNT>
0

> <PUBCHEM_BOND_UDEF_STEREO_COUNT>
0

> <PUBCHEM_ISOTOPIC_ATOM_COUNT>
0

> <PUBCHEM_COMPONENT_COUNT>
1

> <PUBCHEM_CACTVS_TAUTO_COUNT>
9

> <PUBCHEM_CONFORMER_ID>
0528E91B00000001

> <PUBCHEM_MMFF94_ENERGY>
194.6687

> <PUBCHEM_FEATURE_SELFOVERLAP>
96.775

> <PUBCHEM_SHAPE_FINGERPRINT>
10675989 125 18265899042883966379
11093857 5 18189073008629702311
11621639 183 18120941865583195684
11693224 71 18340196415470933781
11828042 107 18272638039793074648
12218070 45 18116427240200537141
12559415 180 18341618070551456657
15326921 28 18194677296805978722
15400415 2 18335425647228608469
19246450 95 18055064618358823130
19304144 158 18271246143759639169
19304671 126 18057052302519801991
21133410 221 17339553109112792024
21136928 126 17905325126821295769
21772524 286 18048596212321636084
21859007 373 18126294284108624294
21987440 362 18411703222701810924
3525247 18 18413106173348212057
354706 109 18339629157269136696
3918712 181 18408315576396044855
4144715 1 17974861867715329010
46848820 73 18342460348096913494
5265222 85 18410571829853719177
59521099 67 17617936933557825635
60111433 81 18265891350840879506
6677587 24 17704071750864261407

> <PUBCHEM_SHAPE_MULTIPOLES>
945.07
24.36
12.85
2.09
11.25
2.06
-0.84
-60.87
3.65
4.05
5.65
-2.71
2.15
8.76

> <PUBCHEM_SHAPE_SELFOVERLAP>
2078.627

> <PUBCHEM_SHAPE_VOLUME>
509.6

> <PUBCHEM_COORDINATE_TYPE>
2
5
10

$$$$
