250
C=0 M=1 ++ Energy: -3943724.369406611 kcal/mol (wB97M-V / def2-TZVP / SMD(Water)) ++ ChemEnsembleNo: 1 ++ ConformerNo: 1 ++ Version: 1.12.0
H             13.0104018319480694            10.2641822559001099             3.5671409091378199
O             12.9524550122890201            10.1741448837482107             4.5278604645868601
C             12.2990506144989098             8.9217803531122293             4.8112244288590800
C             13.1789488247633795             7.7907846071978497             4.2956248284203999
C             12.0784749333089003             8.8526903154988101             6.3070577406140300
H             11.3306040831365706             8.8828751404155497             4.2875727262206800
O             12.4809292604706101             6.5569072054275797             4.4611828640762701
H             13.4102228137707904             7.9537790863927498             3.2293015748777498
H             14.1284194253592599             7.7706903878176696             4.8576939068022504
C             13.2695411718995295             5.4501355198691499             4.0315948944076201
C             12.5391797422409095             4.1613387348240396             4.3006804033330299
H             13.4854424728398303             5.5207270443195204             2.9552640715771599
H             14.2296970423211597             5.4359292475511101             4.5730869250228201
H             13.1416456818783498             3.3494815165799698             3.8672506323141298
O             12.4501029186439904             3.9866779939026200             5.7332896076750304
C             11.1252529123845694             4.0757942379952699             3.7258962360461099
C             11.9950994446363595             2.6972782704901301             6.1152303055003596
H             10.4962391834557298             4.8754520857282504             4.1398573209506004
O             11.1588292860279203             4.1556767731919102             2.2943343719114400
C             10.5275252645551802             2.7130182574597699             4.0653740363922299
H             11.9793880242646793             2.7018780436830898             7.2117679400264301
O             12.8476084898028091             1.6866319330014501             5.6291273314174397
C             10.5861289873689195             2.4702588854410701             5.5663772613748499
H             11.1247926384684206             1.9415312244600200             3.5484260362683400
O              9.1600881754387604             2.6277844124498699             3.6667809397963600
C             13.7907006713612503             1.1077059480376099             6.5443242652319498
H              9.9262637017284305             3.1973529629282802             6.0636704424923797
O             10.1989938682850507             1.1384017358575200             5.9126797944798097
H              9.0987063546555706             2.9447978046254502             2.7462963035553600
H             13.6211151333659295             1.4925976884464900             7.5587292209480603
C             15.2246903472336808             1.4095232837411200             6.1012915284952403
C             13.5345598313772797            -0.3949785189860800             6.5195638558230904
H              9.2673876359105396             1.0273497629463899             5.6799279542378498
H             15.3562525937241698             1.0765198687694599             5.0604587299676203
O             16.1396636596352216             0.6870907884694500             6.9587103983191696
C             15.6145560308045201             2.8663561966725801             6.1418792431646496
H             13.5963118803243095            -0.7399357478517100             5.4739245410858404
O             12.2525795025107396            -0.7071771361066900             7.0673683645552696
C             14.5826046288703708            -1.1097156015457801             7.3535127609563604
C             15.9878827232530103            -0.7219158514085000             6.8938002927338999
O             15.2585337517311892             3.4614432489222402             7.3886393930054304
H             16.7011894634611799             2.9375186314365598             5.9723702541955497
H             15.1096621561588904             3.3960396501811401             5.3239922659537298
H             11.5870927741621994            -0.2108265136318600             6.5590718434954800
H             14.4808288288417302            -0.7903622809158500             8.4021470992794107
O             14.4731457082891808            -2.5323003869992502             7.2633318255123704
H             16.7395330659795896            -1.1325632448421299             7.5784567471838296
O             16.1833621128240708            -1.2096119228465201             5.5822112928045797
C             15.7823941189257102             4.7939045487131704             7.5096922880011698
H             13.5907440498843695            -2.7855441082078198             7.5669233038195802
C             17.4218456338768810            -1.8710194617763101             5.2863298303592003
C             14.8317615267144607             5.6212301428534603             8.3494603715130395
H             15.8763145657721996             5.2557097870384197             6.5143029092586904
H             16.7790493719794505             4.7596713967727204             7.9751053307876099
C             15.4262914935254205             6.9772413255302501             8.6741378955699506
O             13.5969101992419397             5.8479602712904901             7.6423732938100404
H             14.6204801489600307             5.0730417737750697             9.2825647650497007
H             14.6992981369153295             7.5874210516996499             9.2188150028447193
H             16.3172729520324609             6.8657910773945803             9.2994107005322100
H             15.7048738644094996             7.5061987314016196             7.7553687961046904
H             13.3667040553678405             5.0451247877962198             7.1434183166545404
H             18.0259613693956915            -1.9768339253650200             6.1976821978450403
C             18.2084310480398415            -1.1031392542254701             4.2248037904428397
C             17.0632998342353517            -3.2503229712940298             4.7375210307835296
H             17.5961584026856102            -1.0158981755767300             3.3137988598181201
O             19.4086187039872797            -1.8577223784426400             3.9460617464532701
C             18.6211780504187701             0.2970730304701200             4.5968658032307799
H             16.3917329459576386            -3.1088464781552201             3.8738153813804299
O             16.4287560918021605            -4.0583617426960004             5.7280143700907002
C             18.3189736139819317            -3.9807870362234401             4.2835422949134303
C             19.1564671723427082            -3.1140186761607702             3.3428712317724298
O             19.3713088216019393             0.2853882576823200             5.8088454838386996
H             19.2299424127730809             0.7142935630560900             3.7781717676043001
H             17.7226794327545107             0.9247084919286600             4.7052959248799997
H             15.6810514559232903            -3.5478258102164602             6.0898534695178599
H             18.9388860372517698            -4.1913351517232096             5.1686229950391498
O             18.0179727387402302            -5.1965670159076502             3.5933258572599800
H             20.1401838198653387            -3.5703719688826898             3.1788576257015801
O             18.4643790398474614            -2.9678594003923102             2.1208746633820299
C             19.9012780444304909             1.5789225383934000             6.0968382484532100
H             17.5796118037046298            -5.7896824633769199             4.2182275839357501
C             19.1903306555816791            -3.1676941065731699             0.8993490333464300
C             20.6024311332324501             1.5324229707059001             7.4475559002270497
H             19.0859381858454995             2.3222348419644900             6.1250437920551404
H             20.6177736219069097             1.8781995080021601             5.3112933855524203
C             21.8067786534140104             0.6166429129050000             7.4442540091114404
O             21.0665047454327912             2.8578257436376400             7.7678662993033099
H             19.8804049893028889             1.1984224294661401             8.2094425254861800
H             22.3037771193444812             0.6309730388823200             8.4193998988278107
H             21.5008626890705017            -0.4113955804282900             7.2315553073745500
H             22.5249034848076803             0.9328848549153900             6.6775159356272002
H             20.2907458537571799             3.4259465911614502             7.8676760069898801
H             20.1028397411926107            -3.7509787935355701             1.0856139553615300
C             19.5372527080728915            -1.8303457827914400             0.2448456982163900
C             18.2443828872375100            -3.9629484800462098             0.0058518438077000
H             18.6124476461664905            -1.2482471826644701             0.1258803891754200
O             20.1048900904058385            -2.0936614006445402            -1.0600808649427400
C             20.4915229437725799            -0.9529307450568100             1.0111413500526700
H             17.2824081532857896            -3.4257851640302501            -0.0334808631748600
O             18.0482983469164502            -5.2816257725989200             0.5213603778506100
C             18.8025336166604013            -4.0834336083924301            -1.4031305871640301
C             19.1789757122917699            -2.7065390941044698            -1.9502604167990800
O             21.7090753844020306            -1.6431149552887800             1.2996159989442400
H             20.7110896093522108            -0.0622918904493600             0.4049991575595200
H             19.9865116783603014            -0.6259057232436500             1.9294710292691299
H             17.8288601710529093            -5.1926795501768597             1.4653531691028101
H             19.7228516464446102            -4.6861629643029996            -1.3734844779328601
O             17.8617378849297097            -4.6618743612326998            -2.3105768280835601
H             19.7036056407566917            -2.7991878206453200            -2.9088653591878502
O             18.0025789104162897            -1.9419392041984100            -2.0858682311771601
C             22.7219743185215890            -0.7592557731283800             1.7896609211920200
H             17.6787337330052488            -5.5642363865453399            -2.0160431963421099
C             17.8339739334146401            -1.1415233812618799            -3.2641695147665999
C             22.5356491168948700            -0.4232575935543100             3.2687756541591400
H             22.7301345979366616             0.1695250381591400             1.1971536866684300
H             23.6803639170623015            -1.2729401428641700             1.6466138646141200
C             22.7829314418665412            -1.6240329929018000             4.1630264822882204
O             23.4780328931255688             0.6358706081571400             3.5379609224845301
H             21.5150080995778801            -0.0420004089611000             3.4300798642308399
H             22.6059268157513600            -1.3703558121266799             5.2138930789447500
H             22.1104235634416106            -2.4458966832172000             3.8959612068045999
H             23.8166174171297094            -1.9716184609954499             4.0513389475592199
H             23.3810328592969796             0.8744896324952200             4.4697480410792396
H             18.5932176240637510            -1.4033561194473700            -4.0136354625796500
C             17.9140155742319394             0.3508905411250200            -2.9315526341461098
C             16.4461561296226400            -1.4721461469092201            -3.7997057544517401
H             17.1809465092529905             0.5856471035741601            -2.1426993829280399
O             17.6185086142745284             1.1015891982506900            -4.1288618755806397
C             19.2650691593689096             0.8120953832273200            -2.4420098731342801
H             15.7105550301406005            -1.2801672693436801            -3.0005530013174901
O             16.3678421574658302            -2.8336245843802699            -4.2248365168501802
C             16.1366586293485810            -0.5910520134073600            -4.9975634241134204
C             16.3244261653447111             0.8893427952730700            -4.6585725875894504
O             20.2517756749857902             0.5059208603656700            -3.4282768080661699
H             19.4822449958193182             0.3092819735017200            -1.4918081544514299
H             19.2313765825734500             1.8951801813727400            -2.2503606334860602
H             16.6846492123069012            -3.3864820563668898            -3.4892668895223302
H             16.8507456353325011            -0.8286553822471801            -5.8009608716421299
O             14.7982054913365104            -0.7638523914902901            -5.4677963460475301
H             16.2809875697109199             1.4904545528557700            -5.5751160043067500
O             15.3171421872013909             1.2970868077782700            -3.7527142570472098
C             21.4779763264093404             1.2240042479993600            -3.2579477477508800
H             14.7026038200377194            -1.6765589981904201            -5.7717433279694896
C             14.6191379668060701             2.5189022474054599            -4.0429716153314104
C             22.2483558412271911             0.8334112617540100            -2.0018232575846802
H             22.0784444771510202             0.9919845826314000            -4.1455156372023598
H             21.2796342936526415             2.3089933586745901            -3.2352769095157301
C             23.5986093689204210             1.5199519286574099            -1.9772076334378399
O             22.4647485050692985            -0.5877644291711400            -1.9520750983565800
H             21.6746826846271290             1.1417775830998600            -1.1151132248437701
H             23.4737964657150293             2.6069124676799000            -2.0141419292675198
H             24.1395619834343798             1.2686841379990199            -1.0596111004462301
H             24.2047390272296212             1.2110064423167799            -2.8366040374195700
H             21.6121257142467691            -1.0130202486443001            -1.7520359638385901
H             14.8947011930167008             2.8846803827645902            -5.0411713725544196
C             14.9389012618092103             3.5875414383122601            -2.9941125766151901
C             13.1307935242986105             2.1906297244614499            -4.0161338920248602
H             14.7120233933531299             3.1897602364089002            -1.9926998919379899
O             14.1216802032664592             4.7514678409657103            -3.2582587618048700
C             16.3781882892719786             4.0444146533231597            -2.9718783828541402
H             12.8914085296875705             1.7358324838148800            -3.0402068436283698
O             12.7741446890777404             1.3021414342175399            -5.0753813769470497
C             12.3184009177568008             3.4626880078279099            -4.1935601233791298
C             12.7268426863829394             4.5176098657885602            -3.1659380291624100
O             16.7546965240086010             4.5184173461686097            -4.2678541539240999
H             16.4776890872218189             4.8546186326994203            -2.2329758687260699
H             17.0077587207253913             3.2033427616185302            -2.6466418339698099
H             13.3771424467419902             0.5373651680852400            -5.0373129660311600
H             12.5286711570737008             3.8790717234586900            -5.1907528669602101
O             10.9151966386514392             3.2324712296965101            -4.0484192130911802
H             12.2493071228104000             5.4782081977074100            -3.3934299180863001
O             12.3611153631882509             4.0718423245605200            -1.8745107266197101
C             18.0000831413794202             5.2226598953763004            -4.2739824409055300
H             10.6505953894106398             2.5818183152826100            -4.7129086402622304
C             11.5949186589080497             4.9469894109762196            -1.0294676522239199
C             19.1949603642482103             4.2772783388198103            -4.3467258804694504
H             18.0826469143614794             5.8537566044008296            -3.3766928599311501
H             17.9858667558450094             5.8726304184277902            -5.1577684320152004
C             19.3103399458050013             3.5859542910737101            -5.6922637524097404
O             20.3508147980666898             5.0979254815347304            -4.0781961081177496
H             19.0973171982364391             3.5246287888129002            -3.5515478147923001
H             20.1404340742941201             2.8698608468912199            -5.6913094913626798
H             18.3913666001477409             3.0364459271320698            -5.9214972154451999
H             19.4805505375807009             4.3244508958443300            -6.4844380338708296
H             21.1278664158262011             4.5278073138459902            -4.1533812278923099
H             11.2171580473417691             5.8027890482264803            -1.6087741373986000
C             10.4182937845473802             4.1181756319010496            -0.5247976860802100
C             12.4625226932636899             5.4458771043131700             0.1310012442307200
H             10.8151402872647608             3.1789903654355598            -0.1073227466015300
O              9.4967662965076798             3.8373214594801399            -1.5796505372271199
C              9.6663477664628896             4.8638171104355399             0.5629173638836900
H             12.9731992687347599             4.5894333044383302             0.5966094825244100
O             11.6405807223198199             6.1177566541702504             1.1109680609015300
C             13.4871427188250497             6.4514774321424202            -0.3419039874523500
H             10.0048101435350407             3.4655042768385100            -2.3248655563483802
H              9.2169328824745893             5.7726166618171302             0.1339072284318700
O              8.6522857605925196             4.0546683831261197             1.1650938310287400
C             10.6232419848891109             5.3047763172060103             1.6695326770003400
O             14.3876127865448300             6.7769849246385299             0.7261226151898800
H             14.0322337429258504             6.0213092985969796            -1.1895414078354500
H             12.9769169927662809             7.3638709152456396            -0.6821165900330000
H              8.0594095334508200             3.7506213863348301             0.4642473092176300
H             10.1021469431190898             5.9374717692245902             2.3978598954022901
C             15.7641236369311208             6.5956445615272203             0.3988174534391900
C             16.2684577354502800             7.7065049949110600            -0.5216081765281900
H             15.9254704039665391             5.6113306085706798            -0.0700783185148800
H             16.3085688908247910             6.6216531426829697             1.3499458210717701
C             16.3488724353367694             9.0470085813072902             0.1795901030231200
O             17.5740225987412693             7.2768263728766600            -0.9855710476582500
H             15.6039558958201798             7.7771398128080698            -1.3960029028518000
H             16.7097082325041804             9.8225493309762992            -0.5047273812974100
H             15.3566535887862496             9.3452519047162106             0.5343447290241100
H             17.0248102417476801             8.9877684504183897             1.0402880099962299
H             17.9966685564297997             8.0196555692857405            -1.4388302539423401
H             11.4603477402486504             9.6912758297739092             6.6430409032653399
H             11.5677462367344006             7.9229240840518997             6.5725358261588296
H             13.0383421481420907             8.8848216436738205             6.8363628415260598
O             18.9106038986512708             5.9448615741358104             0.8746760504848100
O             19.2496854025205195             4.4065127211231401            -0.7359607703904399
C             13.8116498528639298             0.2819649619879900             1.0176707545094501
C             14.6197909484052495             0.5758849961433700             2.2943837038018500
C             15.8530409235837695             1.4087108883448300             2.0690748519914202
C             18.2188521783414394             2.9225847714976201             1.7345639396788399
C             19.4885810616600708             3.7513946105090801             1.5858346186828201
C             12.6322542083816600            -0.6297924169279900             1.3510832587354200
C             13.3271312179797405             1.5769970692412101             0.3704925241116300
C             16.9124008023025887             0.9281244386913901             1.2937341410502901
C             15.9830564599158205             2.6801939151529499             2.6312713548805799
C             18.0699520548694501             1.6786812942930300             1.1157181588757199
C             17.1502183028374198             3.4227294562147001             2.4813235766879500
C             20.7542124809634387             2.9356152564620199             1.3373116864597701
C             19.2251718699320691             4.7213070607357199             0.4473764030827300
H             14.4703579737849601            -0.2413899350997500             0.3082725070863600
H             14.9128041047679307            -0.3798118140169300             2.7541511742032201
H             13.9639015220543694             1.0882423557156400             3.0122086204910001
H             19.6074621000265985             4.3429294395946902             2.4993935349961398
H             12.9689329535332494            -1.5700741396083600             1.8027608177183601
H             12.0524139464085795            -0.8709453777789300             0.4531532270394400
H             11.9578383578349001            -0.1356402224234700             2.0633601953494201
H             12.7588974916032605             1.3704913804605401            -0.5435436962284900
H             12.6708069294826409             2.1206361487263701             1.0629880438611701
H             14.1611049728384799             2.2383589803493602             0.1080904603459100
H             16.8348475729922491            -0.0525686895075400             0.8289966630486600
H             15.1610335236343303             3.0901921614362902             3.2105174106406000
H             18.8717847192876498             1.2748246749362000             0.5073410017790800
H             17.2351029586325097             4.3964353977965596             2.9597977514253202
H             20.8944363961634991             2.2100996889850899             2.1458356511610202
H             20.7081295192684713             2.3979044478003302             0.3868804004627200
H             21.6276853796400204             3.5948789460514998             1.3093925856317199
H             18.5394137432361994             6.4921565349793404             0.1187013538430700
