236
C=0 M=1 ++ Energy: -4408372.730656878 kcal/mol (wB97M-V / def2-TZVP / SMD(Water)) ++ ChemEnsembleNo: 1 ++ ConformerNo: 1 ++ Version: 1.12.0
H             -3.5881874803103901             8.3893637976651192             1.7676793403854201
O             -3.6083181222848899             8.3004586589511895             2.7300657021273600
C             -4.2127203308787502             7.0296729650314402             3.0398164401436101
C             -3.3206310559880601             5.9253017590074499             2.4886155075011902
C             -4.3681711174114000             6.9559961490420399             4.5433593607894700
H             -5.2002825746815500             6.9615631344919198             2.5564828855744102
O             -3.9700379490156799             4.6704612748704797             2.6848291559383002
H             -3.1403911245087199             6.0925252011337703             1.4132440007812901
H             -2.3484329122964200             5.9370398089824103             3.0111364728565801
C             -3.1676790530200800             3.5871726379258302             2.2227233520934302
C             -3.8428012016374100             2.2791397640274700             2.5465586040738599
H             -3.0133823027024600             3.6530324083884702             1.1350038810397600
H             -2.1802899913378400             3.6076935229752101             2.7107762660612198
H             -3.2327686402443101             1.4774298059111199             2.1032751937756000
O             -3.8630260809323800             2.1420422360573301             3.9860755823464400
C             -5.2788101984279701             2.1602605794618999             2.0366679176846900
C             -4.3189644265089102             0.8772201140679901             4.4391203866907603
H             -5.8917284492896096             2.9695133628924002             2.4557477894771500
O             -5.3006234200600204             2.2104032027405398             0.6033997847503000
C             -5.8622503000669797             0.8118093428249100             2.4474732745001000
H             -4.2966249622821699             0.9341813033173700             5.5339620971278602
O             -3.4948411227884399            -0.1690685933218400             3.9756672576106298
C             -5.7485811531367004             0.6369431595482000             3.9547895131983601
H             -5.2880883180466904             0.0168355656899700             1.9429696809574799
O             -7.2449518660232402             0.7160012057915700             2.1058405824309601
C             -2.5235307979377701            -0.6974937410943600             4.8920392078946904
H             -6.3848875526604196             1.3901340835766700             4.4430347778883297
O             -6.1306192346370398            -0.6751532965980600             4.3756546543035197
H             -7.3378035158725003             0.9568047530164701             1.1654013848030600
H             -2.6076368402083498            -0.1983290509631800             5.8667071869612100
C             -1.1113407551521699            -0.5071688968046800             4.3364168773586602
C             -2.8310811502561899            -2.1837342835105900             5.0502313140263597
H             -7.0892800939919001            -0.7537891389973800             4.2843550291494896
H             -1.0461313049857199            -0.9762779247617500             3.3425464871490700
O             -0.1803036903286500            -1.1510101328827800             5.2371845965583601
C             -0.6784302718284499             0.9291625119083100             4.1649923127701900
H             -2.8408525003597700            -2.6438545587211300             4.0488015934996904
O             -4.0884424201592502            -2.3859560743159101             5.6972208615037099
C             -1.7595673229532500            -2.8500480015937599             5.8983539799287099
C             -0.3703697807122400            -2.5545220802567701             5.3351576318083804
O             -0.9312460725795700             1.6834441742381401             5.3488617179541498
H              0.3963685078910100             0.9412833432787699             3.9240114880430998
H             -1.2231646929933799             1.3683842059203200             3.3164636856439200
H             -4.7685708418724104            -1.9333707878440101             5.1675837622132601
H             -1.7988709504100699            -2.4305760319993199             6.9151763189174504
O             -1.9084394441076000            -4.2715316522673703             5.9461127413356101
H              0.4070026952825900            -2.9126592609585198             6.0208319174624103
O             -0.2618550268494700            -3.1883096012491499             4.0778214992796000
C             -0.3613349402893000             2.9980066432681101             5.2707532092234501
H             -2.7473608706708501            -4.4666609785937004             6.3851258525646104
C              0.9468211912385500            -3.8996342960495798             3.7777524951979702
C             -1.1448484885703301             3.9175818187104099             6.1827087478591896
H             -0.4192050893470300             3.3758767340376701             4.2368796818585999
H              0.6968333124866400             2.9665363839497498             5.5723479139525196
C             -0.5132383917621300             5.2939745605344299             6.2469105593183798
O             -2.4938065522843700             4.0779820610480702             5.7020172244615299
H             -1.1713370205094900             3.4710590905320902             7.1906027755015298
H             -1.1227197327458001             5.9610025476308399             6.8641731485998303
H              0.4869765452317000             5.2386365216089299             6.6875163599428999
H             -0.4332476918119400             5.7263176444856496             5.2425493967850496
H             -2.7764712524372199             3.2475120424381698             5.2819406912743796
H              1.5279296618965099            -4.0675513596032804             4.6946756868952697
C              1.7866990240370999            -3.1431030595424398             2.7514906290828800
C              0.5113656113600200            -5.2363078984375502             3.1867009634684900
H              1.1851828382624201            -2.9797797466693199             1.8454161504340501
O              2.9387263850389198            -3.9554733689962500             2.4342996273919102
C              2.2877910441752198            -1.7944596172551801             3.1899567402426601
H             -0.1570804142882300            -5.0309587877913797             2.3339403414515800
O             -0.1651761192215800            -6.0339224759976702             4.1604428941581100
C              1.7210323608837099            -6.0189414132982204             2.6956191642465601
C              2.5993690324455998            -5.1645445634735596             1.7784899596216901
O              2.9935173153990200            -1.9025215833032501             4.4231440556749497
H              2.9561557977650001            -1.4077399266375299             2.4069414600944201
H              1.4398367058302199            -1.1006359361579301             3.2853859994901802
H             -0.8494071501420200            -5.4740367252712998             4.5677353601631001
H              2.3364177136076401            -6.2967790700362301             3.5650219111274399
O              1.3483115989825500            -7.1892619551009798             1.9634062158181800
H              3.5501317916451800            -5.6743897393610698             1.5790431570945000
O              1.8991056165766700            -4.9218426372351196             0.5773583589344500
C              3.6486995363889001            -0.6757163593012900             4.7454722401457001
H              0.8953191942069100            -7.7888508203400102             2.5713160054809001
C              2.6104766584693202            -5.0349927576127600            -0.6643489147127100
C              4.3491222926255597            -0.8235560424620600             6.0884070397477199
H              2.9109255988047300             0.1444179777225300             4.7945593474130099
H              4.3916864319470399            -0.4311040251547700             3.9684725869135500
C              5.4952090990516398            -1.8104183526598900             6.0340482742996802
O              4.8985554719630997             0.4563260666146300             6.4574455834618796
H              3.6120568933456898            -1.1422980468440800             6.8423745998112304
H              5.9893492638264796            -1.8829553246218000             7.0080428003168800
H              5.1277559735482203            -2.8041676084492799             5.7623382177650502
H              6.2316903529003396            -1.4941231218783899             5.2854432501510598
H              4.1610835538417197             1.0715051158248801             6.5702239184437801
H              3.5622929940501500            -5.5627151967710704            -0.5135431393485100
C              2.8567091074639599            -3.6587227730624199            -1.2867680202583700
C              1.6980789341685401            -5.8576236329034996            -1.5701840440640300
H              1.8950380391207899            -3.1345002336568801            -1.3793507546259800
O              3.4280041734174200            -3.8587440606416701            -2.6018731712803800
C              3.7783606540825199            -2.7403452258959700            -0.5225839425574100
H              0.7098571536304200            -5.3690597643162299            -1.5903039921253399
O              1.5734529078641399            -7.1968047210787702            -1.0871469954134201
C              2.2505230911956300            -5.9183582301932800            -2.9848858614944200
C              2.5554724676751799            -4.5156410885316403            -3.5101744435159299
O              5.0604698077732904            -3.3498338214610301            -0.3582711720728300
H              3.8808189311869499            -1.7997609230149501            -1.0858903734996399
H              3.3179782757822398            -2.5092651634306802             0.4458025427666800
H              1.3202772362433299            -7.1434072302071501            -0.1490010471131200
H              3.2009572035892200            -6.4732020498697702            -2.9716595916056501
O              1.3358015894766400            -6.5275885182571001            -3.8988436944965299
H              3.1039164768787200            -4.5724493563289199            -4.4581387795230896
O              1.3440093944702600            -3.8110885153650802            -3.6708309320638302
C              6.0467544077946398            -2.4384726463546702             0.1394367463081600
H              1.2169245812130500            -7.4489829479297800            -3.6316893420677099
C              1.1563280291274201            -3.0583995691492900            -4.8785764385182899
C              6.0042396246376502            -2.2893132988563898             1.6625347433102500
H              5.9205324362988296            -1.4484430904892900            -0.3278808736556800
H              7.0233841182142100            -2.8441520195270500            -0.1566387456719400
C              6.3108056234782302            -3.5908531141748701             2.3783352388438099
O              6.9303034816747200            -1.2530361957611300             2.0500428390073000
H              5.0196023159104604            -1.9108137964931800             1.9631344706694700
H              6.2053549459174002            -3.4728066781840399             3.4615121033221099
H              5.6321021623281897            -4.3844897548730097             2.0506818845763601
H              7.3378815707947904            -3.9071699488499401             2.1546854185917499
H              7.8235005389548098            -1.5952493946270001             1.9009766592948500
H              1.9079758370471400            -3.3477718787797999            -5.6256309067661903
C              1.2295204996047000            -1.5531995050048999            -4.6163563212784098
C             -0.2373942230702200            -3.4118417404068402            -5.3859008718942496
H              0.4735447240554500            -1.2834291593578999            -3.8619674782672502
O              0.9533744492126400            -0.8710240082027600            -5.8585637536708797
C              2.5598383636615099            -1.0503275746537699            -4.1139237858671800
H             -0.9636273782790600            -3.1874969777075499            -4.5867610371732104
O             -0.3197591660426500            -4.7894555475122802            -5.7548754990927504
C             -0.5681477791000500            -2.5816603658889501            -6.6165605188168497
C             -0.3520825912045500            -1.0881521369559399            -6.3610973959720498
O              3.5873744492364201            -1.4195203238670600            -5.0342319354429099
H              2.7402330900120200            -1.4693940155304599            -3.1142043207772501
H              2.5098113425638702             0.0448578994628200            -4.0188657264082099
H              0.0401282934279400            -5.3113699449354703            -5.0164665075277597
H              0.1195260002747800            -2.8702109187012299            -7.4260527717015403
O             -1.9224293882463801            -2.7573796807472699            -7.0395214709745497
H             -0.3984626884768600            -0.5349888873580300            -7.3072153441941499
O             -1.3400265698571701            -0.6207064656732800            -5.4648988827310196
C              4.8016147140345602            -0.6796268913091100            -4.8627240318464002
H             -2.0264460454908400            -3.6699918156127498            -7.3405094860914204
C             -1.9948844315693399             0.6192290281333500            -5.7779648700348298
C              5.5390910156414899            -1.0092988153341800            -3.5704625355001900
H              5.4299958830338797            -0.9427297873005200            -5.7219350622965397
H              4.5901726708143098             0.4024887218720900            -4.8936582720547799
C              6.8690508013876297            -0.2845280846406700            -3.5224447774628298
O              5.7962900538009903            -2.4217725992304402            -3.4772858422279200
H              4.9253111439973596            -0.6977139777097300            -2.7121807673082099
H              6.7246005206515100             0.7946472287975100            -3.6336761074871302
H              7.3709062442475997            -0.4666742065979400            -2.5666477593511798
H              7.5222943116190102            -0.6299608500908300            -4.3320986564708797
H              4.9575070379185497            -2.8598061826156398            -3.2477603305883900
H             -1.7247248845915200             0.9467034198659100            -6.7909527423158602
C             -1.6096112259826800             1.6986563479148900            -4.7608743332925201
C             -3.4916416345163599             0.3433442384599100            -5.7206411178916596
H             -1.7936862808794700             1.3163802617410600            -3.7450068053606400
O             -2.4095532792087702             2.8812035909216100            -4.9922974933415096
C             -0.1588609323362100             2.1152530466150101            -4.8268006405389103
H             -3.7313507750297701            -0.0925457507884000            -4.7370511207068899
O             -3.8936799278851901            -0.5459143026068700            -6.7641594174930004
C             -4.2587879479852004             1.6422512423869400            -5.8986362186320198
C             -3.8063025686913199             2.6794019281150998            -4.8700070777556901
O              0.1521656118872000             2.5793737839252100            -6.1437061644675204
H              0.0208594838226000             2.9179179086274898            -4.0954126864656599
H              0.4613847655251300             1.2508347156677699            -4.5525372220823002
H             -3.3315497601631199            -1.3390933967941101            -6.7074770054074300
H             -4.0390557289515199             2.0515386808115701            -6.8967802992818497
O             -5.6688134483140100             1.4630201562892999            -5.7481540644931499
H             -4.2694287737780501             3.6513805301869802            -5.0783558048727198
O             -4.1398279767522199             2.2343814552718899            -3.5677011694887999
C              1.3946800065194100             3.2830334642434500            -6.2159572938543004
H             -5.9506352837189400             0.7883117155181700            -6.3814049182003396
C             -4.9900382029947297             3.0487737811760001            -2.7389859798674099
C              2.5954124592762202             2.3416750410003799            -6.2435068748892100
H              1.4862713979586999             3.9754917463047401            -5.3652229800651599
H              1.3633141013671499             3.8699493699785199            -7.1421102261652401
C              2.6716923470328302             1.5354564319864901            -7.5261728507232304
O              3.7507106951952398             3.1919904833289499            -6.0904375655368996
H              2.5343819468746500             1.6634248501453801            -5.3793650632341201
H              3.5068567642598798             0.8260445183424800            -7.4920835818173597
H              1.7497822020635101             0.9647266570894800            -7.6772708423121898
H              2.8102502611463400             2.2041033923816702            -8.3839223292956007
H              4.5303509634696599             2.6226791262106302            -6.1379012681937999
H             -5.4536600286886099             3.8492187288584301            -3.3347768107167002
C             -6.0676876214815296             2.1121369314314600            -2.2029915820387398
C             -4.1580016459499598             3.6490410415110701            -1.5968559631296999
H             -5.5652086108262200             1.2258001717500200            -1.7821684182924300
O             -6.9811965245313399             1.7202040211716800            -3.2270581964586298
C             -6.8686726253100003             2.7929257034545198            -1.1073984042719900
H             -3.5479098270309999             2.8455246549320901            -1.1594560242442800
O             -5.0116696412573498             4.2176296829873801            -0.5776831114091100
C             -3.2764344513526100             4.7817205820914603            -2.0920988259224500
H             -6.4611006246335698             1.4603640056903600            -4.0125829756343503
H             -7.3945425854986597             3.6617343805538698            -1.5319928695373899
O             -7.8076747038795604             1.9038324628009100            -0.4976490139960400
C             -5.9409432735395296             3.3110277506833499            -0.0113878464383100
O             -2.1998114286755901             5.1042695970206502            -1.2072106740182400
H             -2.8721804505702502             4.5271020933533697            -3.0808465459674799
H             -3.8846678111093200             5.6880774931101401            -2.1866507511337701
H             -8.3911509041695194             1.5660026617119300            -1.1907026119488400
H             -6.5081238695154697             3.8909494949908701             0.7265489694525700
C             -1.1474528122616301             4.1405996104209297            -1.2641471982247601
C              0.1330438546468000             4.7602089619809096            -0.7260008848196600
H             -0.9833384779853200             3.8338363874710701            -2.3092534757397001
H             -1.3983871197519300             3.2435799523094202            -0.6749401910038300
C              0.1115912205529500             4.9729185218770899             0.7734382631111300
O              1.1724805399534599             3.8324974243058598            -1.1143466618732401
H              0.3028182319755100             5.7199271987674898            -1.2381770682866600
H              1.0588259758160199             5.4063085347003401             1.1146077526338400
H             -0.6908336260141700             5.6660705869891999             1.0454745749044201
H             -0.0517508224875700             4.0225955569604404             1.2949691664116001
H              1.9118566436258899             3.9240111089256100            -0.4978603477690100
H             -5.0005177241406198             7.7730544297983402             4.9048526685528397
H             -4.8341249309102396             6.0092753449775298             4.8308833427542002
H             -3.3883538096093400             7.0229467274289599             5.0311313000448896
S              1.0116980141834999             0.4536240927510600            -0.1071876630584300
S              3.5991982318018398             1.2414522658575100             1.4235911575804101
O              0.3625746869627900             1.1791247862831700             0.9956885441318600
O              0.9689409905652300            -1.0163465676727499            -0.1275993796043000
O              5.6798706947811501             1.7125022707934301             3.0449413500776901
N              6.2267582955458298             1.8112477314276900             0.8487196757584100
N              3.4357149028812501             1.0917096737359100            -1.1582304083973300
N              0.3873129528773200             0.9938922249197200            -1.5362125363423000
N              4.7316931871528203             1.4191672002840401            -0.9100728485342600
C              2.7374655102702201             0.9604566670360400            -0.0731360152246600
C              4.9797390495567901             1.5132039915685600             0.3794566942015900
C              6.5530248040870802             1.8495131273979399             2.1893364362323098
C              7.9896379129222401             2.1036617455997102             2.4996179547231101
H              6.9613380095019899             1.9079588045330600             0.1546252685760500
H              0.5584377415279000             2.0038960643922201            -1.6366147502276800
H              0.7519563837384799             0.4645610387275300            -2.3287548819702200
H              8.6543877013141497             1.7904696785355900             1.6914152376222700
H              8.1198578824291303             3.1809735343936301             2.6593385380978698
H              8.2488917564325295             1.5892753189522399             3.4267051974316800
