252
C=0 M=1 ++ Energy: -4369277.897753804 kcal/mol (wB97M-V / def2-TZVP / SMD(Water)) ++ ChemEnsembleNo: 1 ++ ConformerNo: 1 ++ Version: 1.12.0
H             13.4896631023705407             9.9352078263608394             3.9042566355640300
O             13.2653178818849593             9.8309827919710795             4.8388328569455501
C             12.4665754106815498             8.6388876318977506             4.9693314694806503
C             13.3091479993508397             7.4432846760408902             4.5466558610051901
C             12.0143078288776799             8.5533175995016109             6.4111980002605398
H             11.5901436770272408             8.7058628693910194             4.3052373417957597
O             12.4915804027557495             6.2734221996636599             4.5741644532927603
H             13.7018750966354492             7.6053770117728998             3.5283759642097801
H             14.1640840779408297             7.3239442190022102             5.2345613558066697
C             13.2190511816049998             5.1256015572437397             4.1440118639716701
C             12.4105579132502992             3.8767501965995201             4.3806057861558703
H             13.4611814415666906             5.1978651277289396             3.0728259815465599
H             14.1661686373127491             5.0484160004080296             4.7016727801823599
H             12.9710051325348701             3.0412911618842400             3.9345845961295298
O             12.2996495314184706             3.6788675958051198             5.8093822046662700
C             10.9951501705053492             3.8992265654271301             3.8038488145163600
C             11.7470019177228995             2.4211422959087399             6.1690723421273601
H             10.4265522423490609             4.7324242843727102             4.2389656337667301
O             11.0278848289085598             4.0102040471582701             2.3740217584176002
C             10.2955958140845407             2.5800130325694401             4.1145857993988200
H             11.7240590304594807             2.4129925095546199             7.2657286660697302
O             12.5211649201042601             1.3521013455766300             5.6753770824436103
C             10.3284633907636607             2.3050511063763799             5.6108019101900899
H             10.8303987975870708             1.7746665224228400             3.5837138802751101
O              8.9265758902432903             2.6128082654082698             3.7096752291398700
C             13.4346807273589199             0.7159631493842200             6.5828513409127201
H              9.7195832897792496             3.0686494558639001             6.1183286367594798
O              9.8479851741348892             0.9976133178482099             5.9329909392620097
H              8.8937200337795801             2.9775744929498300             2.8053242267749399
H             13.2472310476411597             1.0562748630072900             7.6101016080641504
C             14.8846095013233892             1.0034813667667299             6.1929844546196904
C             13.1568488684229496            -0.7796558926388700             6.4773756670140701
H              8.9110915707171596             0.9588784305632601             5.6986414439990201
H             15.0466030869045007             0.6777193960568400             5.1544010334382202
O             15.7492632847408505             0.2476702645915700             7.0738965563381804
C             15.3055616625853901             2.4474737003612002             6.2573427628328400
H             13.2397700452191298            -1.0723473733764599             5.4179393940731702
O             11.8537339693795900            -1.0949571983645701             6.9737791370402000
C             14.1720174579111209            -1.5614792628991501             7.2956499950843696
C             15.5997510856591095            -1.1554745198593099             6.9258381656974803
O             14.8952668446477308             3.0605831354394999             7.4788679666737803
H             16.3989476440468209             2.4927499800394002             6.1554685178259199
H             14.8716794885431494             2.9833440383671399             5.4018076980491996
H             11.2192823160380506            -0.5312305170620800             6.4989079431807601
H             14.0318389127646004            -1.3181792333198701             8.3599027492733402
O             14.0599361222105994            -2.9728693563309099             7.0957996938246399
H             16.3159789699939104            -1.6077673464979001             7.6221596602929198
O             15.8591530928524804            -1.5693518248813501             5.6010247747436797
C             15.4800744155250207             4.3638044926457997             7.6260292626879602
H             13.1944683590491803            -3.2540502726758600             7.4216896032740598
C             17.1278027174115905            -2.1762266719010701             5.3170009145710804
C             14.5798741852977791             5.2080441606205303             8.5020122021707003
H             15.5764977655322898             4.8486271017739497             6.6414714946315101
H             16.4833314126178010             4.2752670122577401             8.0714631406129893
C             15.2325132576162101             6.5351704084106998             8.8347391020762096
O             13.3378885952491206             5.4891971685393903             7.8264748840078697
H             14.3690894399071691             4.6516393726885603             9.4303229972250104
H             14.5417296301937409             7.1635867881681996             9.4051679076121104
H             16.1323620563929708             6.3804532828974203             9.4379537100263899
H             15.5100985528706108             7.0674624608458698             7.9173771638004302
H             13.0990506370039999             4.7212364783000504             7.2784620282370200
H             17.6777399620080899            -2.3658662653513498             6.2490197482644803
C             17.9661209700592686            -1.2997395247126999             4.3851920395783601
C             16.8151260901740898            -3.4965144258714802             4.6179298712786503
H             17.4050718633657695            -1.1187351862685000             3.4559112389240498
O             19.1841377154770392            -2.0201393201683300             4.0895910809167599
C             18.3479683819778288             0.0555203398132700             4.9228793638144204
H             16.1808100970737208            -3.2772753007431201             3.7426994526798500
O             16.1436310713380315            -4.4003954671012897             5.4967453900143601
C             18.0957342909668704            -4.1698072352419802             4.1508817315759101
C             18.9684182958641188            -3.2058580268586798             3.3455500385258401
O             19.0153362684615992            -0.0715150266693600             6.1752306170892499
H             19.0039691936257817             0.5531909813240600             4.1890803223590103
H             17.4395379612089094             0.6651515929685000             5.0322483206486197
H             15.3694248608166308            -3.9337729459573798             5.8589774957119900
H             18.6776463817643688            -4.4695862803349202             5.0360232217292902
O             17.8374677576602494            -5.3080293167206802             3.3243455664463402
H             19.9606507701911902            -3.6416575066514398             3.1808285918042700
O             18.3331043227613115            -2.9283831826409501             2.1142766540201401
C             19.4500253790359494             1.2010516239455100             6.6535146353155401
H             17.3638148754769794            -5.9596065968201897             3.8589471416221501
C             19.1160649419336188            -3.0092582591011601             0.9140714760074100
C             20.1195146414054200             1.0154321556542001             8.0083703398204502
H             18.5859483014846703             1.8800786127778499             6.7563755844667801
H             20.1623319191156192             1.6518115341660899             5.9410768453940799
C             21.4067517000874901             0.2246728703225700             7.9201531519110704
O             20.4494284048991695             2.3138485650078802             8.5387363374224492
H             19.4117621587024693             0.5083899141965800             8.6832903850150895
H             21.8373931158746899             0.0746164558263400             8.9151239144117795
H             21.2208967381408797            -0.7567095492055300             7.4738437122620898
H             22.1345847147888790             0.7572677125264400             7.2972611230547901
H             19.6237016190755895             2.8015229616020698             8.6640488062849297
H             20.0176680382147296            -3.6121068366481102             1.0868114980341299
C             19.5082361993674915            -1.6178425894924799             0.4114235379510200
C             18.2255219182793589            -3.7180412431535599            -0.0989208184829800
H             18.6040400085675408            -0.9998431073705900             0.3083589379883200
O             20.1407546865084086            -1.7601323923370400            -0.8862486058661300
C             20.4712685635127407            -0.8648076208670900             1.3039886885846901
H             17.2679353057134506            -3.1760005129597801            -0.1613261429938700
O             17.9976220563563594            -5.0751518516271297             0.2895661858231500
C             18.8881730142733488            -3.7278675281949600            -1.4658097405637900
C             19.2860472272043388            -2.3110770802795599            -1.8805168920367701
O             21.5161778139815709            -1.7203467481654899             1.7741495422710900
H             20.8880959117482199            -0.0350889517435100             0.7188016356485700
H             19.9138055322859593            -0.4443207993472600             2.1524372528768199
H             17.7408882647303905            -5.0705548188915603             1.2286025949178800
H             19.8119671763440515            -4.3235868591700504            -1.4095620955945400
O             18.0284962984748987            -4.2515717797540198            -2.4801790145308602
H             19.8789352146092497            -2.3316898556952101            -2.8028100099959201
O             18.1167453654734203            -1.5390340863001899            -2.0462095636345001
C             22.7903108566579213            -1.0766421884783000             1.8841478701548500
H             17.7967330211299810            -5.1585301563668198            -2.2389404937233901
C             17.9878422137290386            -0.7242145021540400            -3.2219468759134302
C             22.8448404995427907             0.0987014098673300             2.8639085803329101
H             23.1190754670806911            -0.7285520966796400             0.8938447538323701
H             23.4813335702443915            -1.8551801016308400             2.2319363952257198
C             22.3445925142746518            -0.2439612976994600             4.2534838266520296
O             24.2129679239964695             0.5558537492522200             2.8922379916578000
H             22.2750194003121997             0.9492722902289500             2.4638436943446100
H             22.4800205062844114             0.6145450203172100             4.9186165494956402
H             21.2806806809111393            -0.4996280518587000             4.2315794498381001
H             22.8960783708178006            -1.0991711489035401             4.6646170725809002
H             24.7441062965418510            -0.1505464507047500             3.2876560449527901
H             18.8310178357267084            -0.8992474939221100            -3.9029890623814598
C             17.9297127483622916             0.7538044831978800            -2.8292166864227699
C             16.6869160353751198            -1.1376509062553899            -3.9014881290430701
H             17.1344557401537791             0.9019390218484100            -2.0829689014976398
O             17.6526081958468488             1.5410912157808601            -4.0092520009795196
C             19.2119078476173293             1.2883842162316399            -2.2387373055768900
H             15.8710899953031905            -1.0643706001548201            -3.1633050568252599
O             16.7681363386396001            -2.4674261682008201            -4.4162667112628000
C             16.3930891015169813            -0.2115150554833200            -5.0702137403298098
C             16.4173490088482907             1.2527216036315001            -4.6311602877226399
O             20.2903384963448303             1.0114184152980099            -3.1339741119897599
H             19.3758442028206090             0.8195963814436400            -1.2575630807966001
H             19.1078569235575486             2.3753176317453000            -2.0909777129027298
H             17.0351713117718404            -3.0537914587822699            -3.6846282561322798
H             17.1802524938569903            -0.3395515735286300            -5.8293922077016500
O             15.1107935370536008            -0.4646809539583300            -5.6499533267697304
H             16.3603161690231005             1.9130496637398700            -5.5050530540550398
O             15.3394872074792694             1.5029846086123699            -3.7456742962949199
C             21.4675460718764413             1.7772075965116501            -2.8592021104300298
H             15.0957861246860698            -1.3855445409264699            -5.9452131441893403
C             14.3752683819339708             2.5020198550030099            -4.1169027415900699
C             22.1503021236082809             1.3840747213485900            -1.5561693912717900
H             22.1476224516715803             1.5844890615796901            -3.6974221421992199
H             21.2208117504240796             2.8502374676764801            -2.8419986314164101
C             23.4366671233085491             2.1624723884638000            -1.3696110533035200
O             22.4698374630848114            -0.0190989154858900            -1.5721635969306100
H             21.4785557352710192             1.5948630762147300            -0.7083520542199500
H             23.2347282415419194             3.2389783454859900            -1.3818241335853800
H             23.9014996142172294             1.9095383850725101            -0.4110201191207100
H             24.1449958995533294             1.9339457786755601            -2.1744236888335000
H             21.6415780532977315            -0.5143475101021100            -1.4508272201899499
H             14.4298396344755009             2.7027010915352800            -5.1956227134014803
C             14.6118872596016303             3.7918630976543599            -3.3257848831054400
C             13.0121305924517205             1.9103690389009400            -3.7824207336691700
H             14.6556866018001806             3.5491567381705700            -2.2522563031730898
O             13.5278944472399303             4.7152150519836402            -3.5757382118759402
C             15.8962415559212698             4.5072573327413501            -3.6734419295863101
H             13.0266456953965406             1.5856213655680500            -2.7288053253380502
O             12.7005513403772792             0.8057225651167400            -4.6331625191059498
C             11.9266864853980508             2.9586043134577400            -3.9646690087757999
C             12.2540936512276293             4.2304023071502801            -3.1830886522506998
O             15.9731415357451905             4.7345073642524298            -5.0846049876961299
H             15.9129259513741008             5.4658134588183902            -3.1362792070359600
H             16.7455359795735390             3.9020526823515702            -3.3303317606241598
H             13.5163942242884207             0.2857230646919400            -4.7611546722295097
H             11.8702995453588205             3.2347096945907898            -5.0275815389769303
O             10.6544175746018404             2.4816166883757900            -3.5141035285149700
H             11.5438907706973897             5.0256175969370398            -3.4384093934910398
O             12.2106795066450307             3.9452231763469801            -1.7997836364789599
C             16.7481951644579006             5.8834332631058999            -5.4256273374196500
H             10.3095272616432307             1.8627412094933999            -4.1708575512780497
C             11.5082199866836703             4.8597554827009102            -0.9400701874041800
C             18.2229583105053905             5.7666249750951701            -5.0443202222726100
H             16.3191933619197798             6.7795824283383599            -4.9497843160901898
H             16.6672956463897606             5.9902331149041501            -6.5137281168896504
C             18.8995228937555702             4.5596503809861897            -5.6638817270604704
O             18.8049933937091112             6.9997446140608899            -5.5154717006245599
H             18.3186352934418117             5.7201488531892002            -3.9465163796614902
H             19.9669803676984507             4.5525361316662796            -5.4137335102059199
H             18.4602868396201387             3.6333316532482001            -5.2797148667803198
H             18.7932822512135687             4.5730214856081801            -6.7548357721484003
H             19.7548277468623397             6.9546383902293698            -5.3452318717657397
H             11.2235538359971301             5.7667708311857604            -1.4942316452699100
C             10.2556450526633700             4.1409685912851799            -0.4427807728398000
C             12.4299353668954904             5.2277489291634200             0.2250504954225700
H             10.5602253952373903             3.1522393403566000            -0.0637423991515500
O              9.2894305079517405             3.9908029459513701            -1.4846917024381401
C              9.5953207164596002             4.9180149811640996             0.6816443511980600
H             12.8420875802796601             4.3031208620104699             0.6561519458594300
O             11.6915107986496096             5.9467154474912700             1.2373057835172501
C             13.5580668750910096             6.1449280266133499            -0.2072879686928400
H              9.6755736477178793             3.4070460822601198            -2.1644123943435498
H              9.2329484465376908             5.8814045978044902             0.2904675353613300
O              8.5132527874311403             4.1899937396775400             1.2689581080013801
C             10.6039551725973293             5.2251603315112396             1.7870014600606201
O             14.5592170257995104             6.2637589211136397             0.8094400478557600
H             13.9921833480916096             5.7765206669563200            -1.1463013361283101
H             13.1570255333438197             7.1496333883700904            -0.3857943409856100
H              7.9218929853678102             3.9158905113237998             0.5540352599300700
H             10.1575325772435097             5.8848621493350803             2.5404428766928300
C             15.5526907016591398             5.2294089441932403             0.7260831930005400
C             16.6938240871498103             5.6492531380572304            -0.2067159556209600
H             15.1079722252291901             4.2916912472236399             0.3640338145196400
H             15.9266575957019505             5.0614215496037804             1.7438421333834799
C             17.6526433654627013             6.6134052642501997             0.4697702102594000
O             17.3560897235986182             4.4807562746000498            -0.7096946663350100
H             16.2388347078936306             6.1510372102817401            -1.0739794998069800
H             18.4117356767347182             6.9761219608734697            -0.2316999223517400
H             17.0999385868137601             7.4780836958109198             0.8532801112021400
H             18.1555143431399806             6.1281831418635804             1.3167660834356101
H             18.2092017125850703             4.3250148644715196            -0.2351078461333400
H             11.4263320076359705             9.4361617105206506             6.6814915574929703
H             11.3904479380266306             7.6679134287629900             6.5623009113489399
H             12.8809407715068698             8.4862082630231193             7.0795183699410300
Cl            25.6224801479856090             4.0647367490044397             2.5714293804650898
N             19.7769197560822612             3.6954556338508802             3.5196471577057098
N             19.7160164770492905             3.6676945102234400             0.5379221146497600
N             17.6730330240221711             3.1532085768420202             3.1419321422068101
N             17.7450923434859718             3.8614365639768198             4.3329376394745296
C             21.1707527386209300             3.7859187801367500             3.2851469203470698
C             21.6460148686932214             4.0944524658513997             1.9957760310339101
C             18.8913925618024408             3.0638108421087700             2.6766371608749902
C             20.7521210690254811             4.3683267782327597             0.8381844728476200
C             19.3750772236104893             2.5213023792214400             1.3877275963320499
C             19.0029758569450102             4.1687160292359797             4.5601829230717899
C             22.0603636530752709             3.5714001917282601             4.3357458926483501
C             23.0287809243719686             4.1784809931003499             1.7960124754249300
C             21.0631452202170806             5.5311286809691502            -0.0247317107904500
C             23.4276745697307902             3.6591129924543999             4.1274033408906003
C             23.8940457884813995             3.9578636735268402             2.8523561039935301
C             19.4952287831064091             4.9425503585814798             5.7210693194665803
C             21.6340548150279410             6.6897722655375196             0.5154972518725600
C             20.7140152487566098             5.5062626808970396            -1.3813586442430701
C             21.8398114999328108             7.8071432487153096            -0.2867963964678800
C             20.9408315117298400             6.6168994698751700            -2.1820988663269798
C             21.4989207504819007             7.7725409093228404            -1.6364605366709799
H             18.5891863888041691             1.9312874972811100             0.9094735068487000
H             20.2527031260477308             1.8835749556720800             1.5626417830063299
H             21.6864504140096912             3.3160179175384901             5.3209931402438402
H             23.4132823055208696             4.4189728254039196             0.8108570687704600
H             24.1168891875915499             3.4817395616544600             4.9458116846749700
H             18.6462509093847295             5.4444145361414504             6.1907534740955104
H             20.2335694057611697             5.6897168313912703             5.4128730365773299
H             19.9631912650060883             4.2905042087683203             6.4675225225277204
H             21.8950589830400091             6.7267327104350096             1.5692028769415500
H             20.2700162670367483             4.6103564045264802            -1.8032994729780101
H             22.2677075029007305             8.7072041700437808             0.1446749779506700
H             20.6841231891995712             6.5811384900660999            -3.2369532136232899
H             21.6711364606665704             8.6422378870619099            -2.2640462971123898
