257
C=0 M=1 ++ Energy: -4064269.6586737335 kcal/mol (wB97X-V / def2-TZVP / CPCM(Water)) ++ ChemEnsembleNo: 1 ++ ConformerNo: 1 ++ Version: 1.12.0b5
H             13.2822219414172800            10.3558665539156998             2.8483905904049900
O             13.2082543960063994            10.3395642924972595             3.8117247563804000
C             12.4888675812811094             9.1510482692829100             4.1817104097993001
C             13.3138286802257699             7.9333786334487399             3.7846160214810700
C             12.2377912902020807             9.2195790933609594             5.6743128108047296
H             11.5272659665277306             9.1111607707750295             3.6433819321667800
O             12.5485621759131991             6.7598431422740699             4.0489654260887598
H             13.5631083528533498             7.9842781496510300             2.7113764305379200
H             14.2558936631788402             7.9161540175889398             4.3611516245397004
C             13.2206876071349892             5.5899911044064003             3.6033999873379399
C             12.4154482469374905             4.3657118973478699             3.9589192567164999
H             13.3587731634233702             5.6177245675554603             2.5112127950744800
H             14.2149926914249392             5.5129821275713198             4.0750809473322596
H             12.9238025696107997             3.4960784859874998             3.5127941698137399
O             12.4086199768678700             4.2377242994934701             5.3981382769049002
C             10.9648362199569505             4.4020091202045197             3.4729657306818100
C             11.8209498055331306             3.0353604007911299             5.8686810451411597
H             10.4578041044612498             5.2824605622262402             3.8910311732449201
O             10.9237772110233298             4.4306386774754900             2.0417266214347101
C             10.2488308757331197             3.1310108248607200             3.9148643023386498
H             11.8820121783990906             3.0891915303428399             6.9633437041393300
O             12.4988839523559694             1.9015276756933499             5.3840380745578296
C             10.3615230861281304             2.9729968132568900             5.4206075507103400
H             10.7404301243989408             2.2753495762051599             3.4207086201978698
O              8.8617304887719701             3.1605299750503701             3.6018048584877600
C             13.3669385355919008             1.2111347515374700             6.2916165585733701
H              9.8367862519233604             3.8152261106990202             5.8999843122074003
O              9.8119059565974105             1.7352755982178001             5.8734248646364904
H              8.7692786442569002             3.3497885080126499             2.6485967030831001
H             13.2852179314221495             1.6419783400939201             7.2991245881748998
C             14.8209261842571998             1.2862102891331100             5.8255924943519704
C             12.9066620211147107            -0.2419221287715500             6.3141361616251404
H              8.9144455439270196             1.6655130869926800             5.5193879257178500
H             14.9026906158027401             0.8798285678187300             4.8048157373073703
O             15.6205470236450896             0.4928935466257500             6.7303261948210800
C             15.4040072113045401             2.6795068284021299             5.7791709815805996
H             12.9474855539817604            -0.6329979371156400             5.2831307077189802
O             11.5917638096884499            -0.3718694942079100             6.8436931349706098
C             13.8386405901698897            -1.0649154604622899             7.1848452279175801
C             15.2829525367580104            -0.8828496489375900             6.7180861066116204
O             15.0993870579444796             3.3949069478793201             6.9699519278909703
H             16.4939182767572916             2.5908816465694700             5.6423043445262699
H             14.9912088963157597             3.2075419548792099             4.9054903813813597
H             11.0076793371772208             0.2306799296579800             6.3470984296195496
H             13.7714411210309695            -0.7045760630131800             8.2237099829773097
O             13.5329401428712703            -2.4600580231923201             7.1289092342218003
H             15.9832162649915599            -1.3692763670726000             7.4083578163243198
O             15.3943118621726498            -1.4244744799633600             5.4192758099234304
C             15.8031019499705394             4.6396453921297001             7.0466427470196704
H             12.6029660207093102            -2.5642856858957699             7.3738426691478196
C             16.4414519850528187            -2.3624735246082502             5.1551674140125003
C             15.0174994371663502             5.5768062862750103             7.9417284626348499
H             15.8893215134041892             5.0911720573030603             6.0440741899388097
H             16.8164681143667210             4.4761591704458299             7.4463454191119904
C             15.7940602526777099             6.8493471827441903             8.2264482274145401
O             13.7786500110340508             5.9491998165907596             7.3182059195103903
H             14.8068426288532091             5.0514090979511597             8.8894559448102903
H             15.1804775181465406             7.5380775369634003             8.8148136752744506
H             16.7044701108042197             6.6281727241711996             8.7920387778199398
H             16.0709447843009414             7.3466240186398002             7.2897142654989899
H             13.4603786535263001             5.2002266071245504             6.7860005348725796
H             16.8398932997161488            -2.7710322332326198             6.0942919595387597
C             17.5681116384772693            -1.7083813628180000             4.3552680227432798
C             15.7960957772159603            -3.4763802964147299             4.3421552548380600
H             17.1444170710528283            -1.2511137168731801             3.4473597939137899
O             18.5236844075656784            -2.7237513935672202             3.9885374760670600
C             18.2978257179728701            -0.6163505579775000             5.0981881271420502
H             15.3066787567344598            -3.0197232491058701             3.4653572513812501
O             14.8449286608043494            -4.2061697410722996             5.1128964799412602
C             16.8547675822596510            -4.4562276928905797             3.8664022441822299
C             17.9834700793956586            -3.7205173198108699             3.1414428005553399
O             18.6972204739474712            -1.0834233659647501             6.3803596634734498
H             19.1761850024969398            -0.3056690978777900             4.5090285362507299
H             17.6262975915124613             0.2500339044945100             5.1996095543746597
H             14.2879593513053607            -3.5612999428181400             5.5869319221637799
H             17.2974735540469489            -4.9516338007147800             4.7452269469838297
O             16.3205986268931404            -5.4338983816419200             2.9719628125042101
H             18.8114429663634510            -4.4066432175451800             2.9213713542218098
O             17.4631375295586402            -3.1636455347652501             1.9549394743883599
C             19.3853120490448383            -0.0779614181670500             7.1170876804698198
H             15.5807764771074293            -5.8701941576277097             3.4162083342098102
C             18.2108548469570906            -3.3077019219128498             0.7423326268634600
C             19.7008277622997809            -0.6238040502282800             8.5049371008106700
H             18.7548648604977011             0.8243076214877501             7.2051398281843504
H             20.3220558930703206             0.2043467568790700             6.6048069075622298
C             20.6675190704938103            -1.7892696497359100             8.4614216220929404
O             20.3152143656875310             0.4152251938254200             9.2846237453605909
H             18.7567403823501095            -0.9407931513522100             8.9782879911787301
H             20.8705779065315618            -2.1574517417874102             9.4717109233696704
H             20.2470551285098210            -2.6075466928076798             7.8702622145781698
H             21.6129781486953689            -1.4780692675585700             8.0018357553587904
H             19.6634772640892201             1.1164968608237900             9.4148368099928597
H             19.0723907514188689            -3.9727800591045601             0.8937642583221600
C             18.6849062887879498            -1.9400174840993301             0.2437780986861300
C             17.2498966995223704            -3.9201815248740699            -0.2694960670170300
H             17.8150039275234988            -1.2699367382697899             0.1667703360665500
O             19.2811991670781602            -2.1048641126285199            -1.0638901154911999
C             19.6988202355385091            -1.2587355355938299             1.1334811422805100
H             16.3659551018700498            -3.2648041974354300            -0.3381916546106300
O             16.8645150265656909            -5.2393483715944003             0.0974098808898200
C             17.9067082719687214            -3.9909420324903402            -1.6342262109739201
C             18.3875475318988784            -2.6002370505581900            -2.0503338554578199
O             20.8120928362297306            -2.1208300805354399             1.3555766780368801
H             20.0240693783299193            -0.3263466962061600             0.6457526281206299
H             19.2023838604414614            -0.9939584176295400             2.0783277353878402
H             16.5117908143002090            -5.2058809901532603             1.0059872503791500
H             18.7900986029046493            -4.6469468973074699            -1.5776855458129200
O             17.0078489082568503            -4.4682843715252396            -2.6361532735912498
H             18.9710897352469310            -2.6518717031875698            -2.9781830958420601
O             17.2687531137516004            -1.7572777114791001            -2.2017500411545701
C             22.0198363747331385            -1.4302981286406899             1.6707919899975601
H             16.6030933025632912            -5.2808147250966497            -2.3011743663156001
C             17.1662757189311215            -0.9768397797964100            -3.3997682430795799
C             22.0282342195495389            -0.8244889477533101             3.0730065376603202
H             22.2043892936387088            -0.6372938362977500             0.9293271151157800
H             22.8235470603274102            -2.1730096595627701             1.5940157927533600
C             21.9241036796451709            -1.8745713701915301             4.1642784468951302
O             23.2712864300614015            -0.1028903426554500             3.1436867285663701
H             21.1896391020987984            -0.1129321324654500             3.1608762338880800
H             21.9465046418400398            -1.4047297039522000             5.1548351518567896
H             20.9823301289089592            -2.4237786523557299             4.0724902510479302
H             22.7588222976313084            -2.5816134286950199             4.0909815862725800
H             23.3410091460587097             0.2721052192089600             4.0306269631404703
H             17.9441118809627795            -1.2744876370117399            -4.1162115213998796
C             17.2982189966542101             0.5164856582737900            -3.0929454352489398
C             15.7903030817556207            -1.2579701846019600            -3.9906337961093001
H             16.5289644689800888             0.8046140051111200            -2.3571664383221198
O             17.1054360565920689             1.2506583912248701            -4.3193646660926701
C             18.6400691823596887             0.9175428134872600            -2.5265702085417798
H             15.0277620850642304            -1.0010007955750000            -3.2342627926699898
O             15.6526576226119403            -2.6151225844409800            -4.3964600086856302
C             15.5909931491980895            -0.3930782903622600            -5.2243429335691696
C             15.8255408184139608             1.0826947729994401            -4.8979177895545503
O             19.6732753952777308             0.4324435040243800            -3.3809617503488001
H             18.7291891653310785             0.4994549513147100            -1.5120269636614900
H             18.6820621573041699             2.0158681794471698            -2.4546187450140300
H             15.9595412635459493            -3.1833427298382100            -3.6648175078999299
H             16.3396295280670394            -0.6855266496059400            -5.9780855460005702
O             14.2768355533095601            -0.5215584238926300            -5.7691824763038104
H             15.8390646576459009             1.6790334370705999            -5.8192020148735804
O             14.7982681821108297             1.5200773261071401            -4.0359036848473400
C             20.9358163498869594             1.0681810880535401            -3.1772811628589199
H             14.1237606348646807            -1.4584758808483600            -5.9524792289355304
C             14.1503704203418401             2.7626758518836598            -4.3363383899800896
C             21.6143126642980086             0.6664315138194300            -1.8707300440012000
H             21.5647339192125109             0.7529711682437999            -4.0188101843366502
H             20.8178017882598994             2.1645180733985101            -3.2114049877664299
C             22.9964327900033112             1.2857086201046699            -1.7763902890358600
O             21.7616784348199808            -0.7573312484229801            -1.7991851459373600
H             21.0050529842933500             1.0171432251002399            -1.0204731282787400
H             22.9332910739100591             2.3774413719388101            -1.8226652738493101
H             23.4731789191965596             1.0051203357240099            -0.8323970463463600
H             23.6266335824847289             0.9372168261361500            -2.6027061310697999
H             20.8813265227993909            -1.1413222279720201            -1.6464938080211899
H             14.4641078671970593             3.1324880651193299            -5.3228043538587597
C             14.4635015203379709             3.8037623818026698            -3.2646958169692999
C             12.6536468664454809             2.4712665992835601            -4.3444090045048602
H             14.1675388080206002             3.4034971612338500            -2.2846864747818199
O             13.7023561601719006             4.9978231785021299            -3.5528954531685000
C             15.9159347708886898             4.1858579481934504            -3.1426732007047500
H             12.3914991499976193             2.0088021540382601            -3.3767245704542401
O             12.2892515553535109             1.6108423188113701            -5.4198581225601004
C             11.8687357950695809             3.7626569093628799            -4.5044876756664696
C             12.3065975401436791             4.7962755444191902            -3.4645384741409200
O             16.4276165887781893             4.6241549393892596            -4.4004889596739103
H             15.9965771011427798             4.9837841179104903            -2.3914466588296999
H             16.4741699245152695             3.3184269470499199            -2.7721448622007201
H             12.8682766201553296             0.8276802974830300            -5.3810183461477399
H             12.0832056901448492             4.1850372886939597            -5.4992320860885204
O             10.4622750020919408             3.5589033349012600            -4.3524616803302596
H             11.8439606199834699             5.7697832556262503            -3.6728008874329801
O             11.9422750259816794             4.3297641197500703            -2.1813655410813899
C             17.4640627565106392             5.6001874271593497            -4.3128774541012396
H             10.1930119155341696             2.8838786036362198            -4.9904644502285302
C             11.1968758112344098             5.1877056241760897            -1.3100645097146000
C             18.8175468614676689             5.0755556319387898            -3.8396528655672699
H             17.1458720682435413             6.4286579202661001            -3.6544412963093702
H             17.5786571472256803             5.9986871038486997            -5.3276720244390203
C             19.8864010543093208             6.1487387624421297            -4.0184123304231099
O             18.7775394530962103             4.6143850783560296            -2.4810414692867901
H             19.0759952620884903             4.1894365609824504            -4.4367482618017204
H             20.8511741044363390             5.7760994755074897            -3.6622438177142800
H             19.9902047182195908             6.4328395274565899            -5.0712030181164502
H             19.6273140166310291             7.0452807136325504            -3.4414919766725500
H             18.3806821009880501             5.3125338876552402            -1.9297028569628500
H             10.7416481340541097             6.0134411580224496            -1.8799030736017099
C             10.0961474412481103             4.3038243714444198            -0.7357822637123000
C             12.0908701928089606             5.7530636985708297            -0.1980212186122500
H             10.5718608005547505             3.4084094629879700            -0.2996654586325600
O              9.1550955179730007             3.9295561060396902            -1.7372984935039300
C              9.3439605082393200             5.0433704594028903             0.3518301053547800
H             12.6641614491952996             4.9269531186855602             0.2518465232699800
O             11.2774437814635906             6.3901326751436196             0.8080646115922800
C             13.0336826585559091             6.8228361476610404            -0.7224786625365500
H              9.6536458091866901             3.6133057464906502            -2.5134664552835799
H              8.8525821065917292             5.9260797639497200            -0.0874571713031700
O              8.3707256190951895             4.2130792172303400             0.9882517031879000
C             10.3210075439061004             5.5441181819816601             1.4156973833950000
O             13.9404336115100307             7.2801627124631096             0.2820434313615400
H             13.5726457740610904             6.4327460832353598            -1.5961105980401500
H             12.4418284924046691             7.6916413080300199            -1.0371409183370000
H              7.8193470412280304             3.8204548505175699             0.2973878482641500
H              9.7989246455571095             6.1689068863203600             2.1517015375021700
C             15.1659503642039208             6.5463103534505196             0.3386744515890900
C             16.2420795398017113             7.1846242298441396            -0.5438028851146500
H             15.0170229578327792             5.4980082803899499             0.0429133168037600
H             15.5020069557902094             6.5621503212920400             1.3857796949142400
C             16.5896896392964202             8.5955235876083798            -0.1062073712957700
O             17.4062374136373812             6.3322319919237904            -0.5428646652564200
H             15.8944664149779200             7.1914139512224304            -1.5857501925951101
H             17.3437685432179514             9.0312172097235504            -0.7686732415678900
H             15.6975262029256495             9.2287821712395992            -0.1268930996826500
H             16.9802335978333403             8.5882749053954992             0.9195306594951900
H             17.8248397237675285             6.3927624539956600             0.3271521826106700
H             11.6402449862863495            10.1015310283586093             5.9244432314158599
H             11.7001471685406901             8.3275666433623101             6.0076313306261202
H             13.1908951620397801             9.2727477243151206             6.2137173464673898
O              9.4458685560648803            -6.7343592339169103             3.8717564596463498
O             15.5373440673091707             2.9502160712317700            -0.1090439720607600
C             11.9129365398947709            -1.8841701972876499             2.2916097447238202
C             12.9956419791908608            -1.8643382554769701             1.4805972387498501
C             11.2550717702801109            -0.6564237949919500             2.8794297204325199
C             13.6533006476412009            -3.1256707169342901             0.9623694277892200
C             11.2693142368796693            -3.1615181456332202             2.7046603046709099
C             13.6558977474816601            -0.6017792802065500             1.0526272525469200
C              9.8569456648723808            -0.4026924739914400             2.2976232816292801
C             13.5352174774313099            -3.2708289171507001            -0.5605939055309000
C             11.2624003101958401            -3.5417642696233300             4.0518575599139499
C             15.0359834034011897            -0.4344351270618100             1.2347575173721499
C             10.6324321262384700            -4.0025650535428703             1.7844062531343301
C             12.9547292436273107             0.4463083664881200             0.4396767099101000
C             10.6694182289415398            -4.7292193428846199             4.4673851337379604
C             15.6844583696009199             0.7367623223332900             0.8607451454781700
C             10.0273300211042002            -5.1884412609831001             2.1831956263350798
C             13.5871563566412199             1.6236522656980801             0.0565475403564200
C             10.0495980242540401            -5.5561946469870902             3.5287578357427098
C             14.9572913535741598             1.7733964420952899             0.2745140223646900
H             11.1422499903058991            -0.8083007805771100             3.9619131624804602
H             11.8891144627824197             0.2255129579326300             2.7454584320409299
H             13.2280427956865498            -4.0045569593945798             1.4549687372356599
H             14.7189504880292397            -3.1065857247294302             1.2275364784477001
H              9.3816211100926292             0.4551583741944700             2.7853718046831299
H              9.9049352700470106            -0.2018810318514600             1.2219322811889599
H              9.2118316502491400            -1.2754532256090700             2.4467727053811701
H             14.0555180457761502            -4.1712700288652096            -0.9060594111365600
H             12.4854988122374895            -3.3424705734347100            -0.8658945515578300
H             13.9747164154763102            -2.4067162304241698            -1.0728781073584901
H             11.7497953415283902            -2.9097745126720800             4.7918727124989298
H             15.6226391269826692            -1.2282262167113001             1.6896428654580200
H             10.6094809170553308            -3.7207642013137101             0.7346545668495400
H             11.8914362932821103             0.3359422925187900             0.2466235613453400
H             10.6891602497183804            -5.0165378888851997             5.5166020548102201
H             16.7538583363329394             0.8512088431983400             1.0299728629202600
H              9.5340324812766095            -5.8328954799277302             1.4609491322725801
H             13.0259029862162397             2.4280435297486398            -0.4126693677959500
H              9.5304484578404605            -6.8741398207542401             4.8247933160281304
H             16.4874269663318813             2.9197514358198902             0.0726798781039600
